            TRNSYS - the TRaNsient SYstem Simulation program

   The Solar Energy Lab at the University of Wisconsin - Madison, USA
Le Centre Scientifique et Technique du Batiment, Sophia Antipolis, France
           Transsolar Energietechnik GmBH, Stuttgart, Germany
        Thermal Energy System Specialists, LLC, Madison Wisconsin, USA

                           Release 18.01.0000
                           User ID  18-T0296

Listing file for: "C:\Trnsys18\Tess Models\Examples\HVAC Library\Restaurant.dck"
 
*** Notice at time        :         0.000000
    Generated by Unit     : Not applicable or not available
    Generated by Type     : Not applicable or not available
    Message               : The TRNSYS Executable (TRNExe.exe) and main DLL (TRNDll.dll) are located in "C:\Trnsys18\Exe"
 

 *** Pre-Processing the TRNSYS EQUATIONs and CONSTANTs to check for fatal errors.

 *** Pre-Processing of EQUATIONs and CONSTANTs completed with no fatal errors found.

 *** Evaluating the EQUATIONs and CONSTANTs to determine their initial values.

 *** Finished evaluating the EQUATIONs and CONSTANTs and ready to begin processing the remainder of the TRNSYS input file.

  VERSION        18
*******************************************************************************                                                                                                                                                                                                                                                                                                                                                                                                                                                                                                                                                                                                                                                                                                                                                                                                                                                                                                                                                         
*** TRNSYS input file (deck) generated by TrnsysStudio                                                                                                                                                                                                                                                                                                                                                                                                                                                                                                                                                                                                                                                                                                                                                                                                                                                                                                                                                                                  
*** on 星期一, 十月 28, 2019 at 13:19                                                                                                                                                                                                                                                                                                                                                                                                                                                                                                                                                                                                                                                                                                                                                                                                                                                                                                                                                                                                   
*** from TrnsysStudio project: C:\Trnsys18\Tess Models\Examples\HVAC Library\Restaurant_3_systems.tpf                                                                                                                                                                                                                                                                                                                                                                                                                                                                                                                                                                                                                                                                                                                                                                                                                                                                                                                                   
***                                                                                                                                                                                                                                                                                                                                                                                                                                                                                                                                                                                                                                                                                                                                                                                                                                                                                                                                                                                                                                     
*** If you edit this file, use the File/Import TRNSYS Input File function in                                                                                                                                                                                                                                                                                                                                                                                                                                                                                                                                                                                                                                                                                                                                                                                                                                                                                                                                                            
*** TrnsysStudio to update the project.                                                                                                                                                                                                                                                                                                                                                                                                                                                                                                                                                                                                                                                                                                                                                                                                                                                                                                                                                                                                 
***                                                                                                                                                                                                                                                                                                                                                                                                                                                                                                                                                                                                                                                                                                                                                                                                                                                                                                                                                                                                                                     
*** If you have problems, questions or suggestions please contact your local                                                                                                                                                                                                                                                                                                                                                                                                                                                                                                                                                                                                                                                                                                                                                                                                                                                                                                                                                            
*** TRNSYS distributor or mailto:software@cstb.fr                                                                                                                                                                                                                                                                                                                                                                                                                                                                                                                                                                                                                                                                                                                                                                                                                                                                                                                                                                                       
***                                                                                                                                                                                                                                                                                                                                                                                                                                                                                                                                                                                                                                                                                                                                                                                                                                                                                                                                                                                                                                     
*******************************************************************************                                                                                                                                                                                                                                                                                                                                                                                                                                                                                                                                                                                                                                                                                                                                                                                                                                                                                                                                                         
*******************************************************************************                                                                                                                                                                                                                                                                                                                                                                                                                                                                                                                                                                                                                                                                                                                                                                                                                                                                                                                                                         
*** Units                                                                                                                                                                                                                                                                                                                                                                                                                                                                                                                                                                                                                                                                                                                                                                                                                                                                                                                                                                                                                               
*******************************************************************************                                                                                                                                                                                                                                                                                                                                                                                                                                                                                                                                                                                                                                                                                                                                                                                                                                                                                                                                                         
*******************************************************************************                                                                                                                                                                                                                                                                                                                                                                                                                                                                                                                                                                                                                                                                                                                                                                                                                                                                                                                                                         
*** Control cards                                                                                                                                                                                                                                                                                                                                                                                                                                                                                                                                                                                                                                                                                                                                                                                                                                                                                                                                                                                                                       
*******************************************************************************                                                                                                                                                                                                                                                                                                                                                                                                                                                                                                                                                                                                                                                                                                                                                                                                                                                                                                                                                         
* START, STOP and STEP                                                                                                                                                                                                                                                                                                                                                                                                                                                                                                                                                                                                                                                                                                                                                                                                                                                                                                                                                                                                                  

  CONSTANTS   3
     START=0
     STOP=168
     STEP=DELT
! Start time	End time	Time step                                                                                                                                                                                                                                                                                                                                                                                                                                                                                                                                                                                                                                                                                                                                                                                                                                                                                                                                                                          

  SIMULATION         0.0000000000000000E+00    1.6800000000000000E+02    8.3333333333333329E-02
! Integration	 Convergence                                                                                                                                                                                                                                                                                                                                                                                                                                                                                                                                                                                                                                                                                                                                                                                                                                                                                                                                                                                   

  TOLERANCES         1.0000000000000003E-04    1.0000000000000003E-04
! Max iterations	Max warnings	Trace limit                                                                                                                                                                                                                                                                                                                                                                                                                                                                                                                                                                                                                                                                                                                                                                                                                                                                                                                                                                            

  LIMITS        30        30        31
! TRNSYS numerical integration solver method                                                                                                                                                                                                                                                                                                                                                                                                                                                                                                                                                                                                                                                                                                                                                                                                                                                                                                                                                                                  

  DFQ   1
! TRNSYS output file width, number of characters                                                                                                                                                                                                                                                                                                                                                                                                                                                                                                                                                                                                                                                                                                                                                                                                                                                                                                                                                                            

  WIDTH    72
! NOLIST statement                                                                                                                                                                                                                                                                                                                                                                                                                                                                                                                                                                                                                                                                                                                                                                                                                                                                                                                                                                                                            

  LIST
! MAP statement                                                                                                                                                                                                                                                                                                                                                                                                                                                                                                                                                                                                                                                                                                                                                                                                                                                                                                                                                                                                                    
! Solver statement	Minimum relaxation factor	Maximum relaxation factor                                                                                                                                                                                                                                                                                                                                                                                                                                                                                                                                                                                                                                                                                                                                                                                                                                                                                                                                                  

  SOLVER  0
    1.000000000000000    
    1.000000000000000    
! Nan DEBUG statement                                                                                                                                                                                                                                                                                                                                                                                                                                                                                                                                                                                                                                                                                                                                                                                                                                                                                                                                                                                                    

  NAN_CHECK   0
! Overwrite DEBUG statement                                                                                                                                                                                                                                                                                                                                                                                                                                                                                                                                                                                                                                                                                                                                                                                                                                                                                                                                                                                         

  OVERWRITE_CHECK   0
! disable time report                                                                                                                                                                                                                                                                                                                                                                                                                                                                                                                                                                                                                                                                                                                                                                                                                                                                                                                                                                                                   

  TIME_REPORT   0
! EQUATION SOLVER statement                                                                                                                                                                                                                                                                                                                                                                                                                                                                                                                                                                                                                                                                                                                                                                                                                                                                                                                                                                                               

  EQUATION SOLVING METHOD         0
* User defined CONSTANTS                                                                                                                                                                                                                                                                                                                                                                                                                                                                                                                                                                                                                                                                                                                                                                                                                                                                                                                                                                                                                
*$USER_CONSTANTS                                                                                                                                                                                                                                                                                                                                                                                                                                                                                                                                                                                                                                                                                                                                                                                                                                                                                                                                                                                                                        

  EQUATIONS   1
     DELT = 5/60
*$USER_CONSTANTS_END                                                                                                                                                                                                                                                                                                                                                                                                                                                                                                                                                                                                                                                                                                                                                                                                                                                                                                                                                                                                                    
* Model "Type15-2" (Type 15)                                                                                                                                                                                                                                                                                                                                                                                                                                                                                                                                                                                                                                                                                                                                                                                                                                                                                                                                                                                                            
*                                                                                                                                                                                                                                                                                                                                                                                                                                                                                                                                                                                                                                                                                                                                                                                                                                                                                                                                                                                                                                       

  UNIT   15     TYPE   15     Type15-2                                      
*$UNIT_NAME Type15-2                                                                                                                                                                                                                                                                                                                                                                                                                                                                                                                                                                                                                                                                                                                                                                                                                                                                                                                                                                                                                    
*$MODEL \TRNSYS\TRNSYS Next Version\Studio\Proformas\Weather Data Reading and Processing\Standard Format\TMY2\Type15-2.tmf                                                                                                                                                                                                                                                                                                                                                                                                                                                                                                                                                                                                                                                                                                                                                                                                                                                                                                              
*$POSITION 78 368                                                                                                                                                                                                                                                                                                                                                                                                                                                                                                                                                                                                                                                                                                                                                                                                                                                                                                                                                                                                                       
*$LAYER Weather - Data Files #                                                                                                                                                                                                                                                                                                                                                                                                                                                                                                                                                                                                                                                                                                                                                                                                                                                                                                                                                                                                          
       PARAMETERS  18
! 1 File Type                                                                                                                                                                                                                                                                                                                                                                                                                                                                                                                                                                                                                                                                                                                                                                                                                                                                                                                                                                                                                        
! 2 Logical unit                                                                                                                                                                                                                                                                                                                                                                                                                                                                                                                                                                                                                                                                                                                                                                                                                                                                                                                                                                                                                    
! 3 Tilted Surface Radiation Mode                                                                                                                                                                                                                                                                                                                                                                                                                                                                                                                                                                                                                                                                                                                                                                                                                                                                                                                                                                                                    
! 4 Ground reflectance - no snow                                                                                                                                                                                                                                                                                                                                                                                                                                                                                                                                                                                                                                                                                                                                                                                                                                                                                                                                                                                                   
! 5 Ground reflectance - snow cover                                                                                                                                                                                                                                                                                                                                                                                                                                                                                                                                                                                                                                                                                                                                                                                                                                                                                                                                                                                                
! 6 Number of surfaces                                                                                                                                                                                                                                                                                                                                                                                                                                                                                                                                                                                                                                                                                                                                                                                                                                                                                                                                                                                                               
! 7 Tracking mode-1                                                                                                                                                                                                                                                                                                                                                                                                                                                                                                                                                                                                                                                                                                                                                                                                                                                                                                                                                                                                                  
! 8 Slope of surface-1                                                                                                                                                                                                                                                                                                                                                                                                                                                                                                                                                                                                                                                                                                                                                                                                                                                                                                                                                                                                              
! 9 Azimuth of surface-1                                                                                                                                                                                                                                                                                                                                                                                                                                                                                                                                                                                                                                                                                                                                                                                                                                                                                                                                                                                                           
! 10 Tracking mode-2                                                                                                                                                                                                                                                                                                                                                                                                                                                                                                                                                                                                                                                                                                                                                                                                                                                                                                                                                                                                                 
! 11 Slope of surface-2                                                                                                                                                                                                                                                                                                                                                                                                                                                                                                                                                                                                                                                                                                                                                                                                                                                                                                                                                                                                             
! 12 Azimuth of surface-2                                                                                                                                                                                                                                                                                                                                                                                                                                                                                                                                                                                                                                                                                                                                                                                                                                                                                                                                                                                                            
! 13 Tracking mode-3                                                                                                                                                                                                                                                                                                                                                                                                                                                                                                                                                                                                                                                                                                                                                                                                                                                                                                                                                                                                                 
! 14 Slope of surface-3                                                                                                                                                                                                                                                                                                                                                                                                                                                                                                                                                                                                                                                                                                                                                                                                                                                                                                                                                                                                             
! 15 Azimuth of surface-3                                                                                                                                                                                                                                                                                                                                                                                                                                                                                                                                                                                                                                                                                                                                                                                                                                                                                                                                                                                                          
! 16 Tracking mode-4                                                                                                                                                                                                                                                                                                                                                                                                                                                                                                                                                                                                                                                                                                                                                                                                                                                                                                                                                                                                                 
! 17 Slope of surface-4                                                                                                                                                                                                                                                                                                                                                                                                                                                                                                                                                                                                                                                                                                                                                                                                                                                                                                                                                                                                             
! 18 Azimuth of surface-4                                                                                                                                                                                                                                                                                                                                                                                                                                                                                                                                                                                                                                                                                                                                                                                                                                                                                                                                                                                                           
       2.0000000000000000E+00    5.3000000000000000E+01    3.0000000000000000E+00    2.0000000000000001E-01    7.0000000000000007E-01
       4.0000000000000000E+00    1.0000000000000000E+00    9.0000000000000000E+01    1.8000000000000000E+02    1.0000000000000000E+00
       9.0000000000000000E+01    0.0000000000000000E+00    1.0000000000000000E+00    9.0000000000000000E+01   -9.0000000000000000E+01
       1.0000000000000000E+00    9.0000000000000000E+01    9.0000000000000000E+01
*** External files                                                                                                                                                                                                                                                                                                                                                                                                                                                                                                                                                                                                                                                                                                                                                                                                                                                                                                                                                                                                                      
  ASSIGN C:\Trnsys18\Weather\US-TMY2\US-WI-Madison-14837.tm2   53
*|? Which file contains the TMY-2 weather data? |1000                                                                                                                                                                                                                                                                                                                                                                                                                                                                                                                                                                                                                                                                                                                                                                                                                                                                                                                                                                                   
*------------------------------------------------------------------------------                                                                                                                                                                                                                                                                                                                                                                                                                                                                                                                                                                                                                                                                                                                                                                                                                                                                                                                                                         
* EQUATIONS "hOutside"                                                                                                                                                                                                                                                                                                                                                                                                                                                                                                                                                                                                                                                                                                                                                                                                                                                                                                                                                                                                                  
*                                                                                                                                                                                                                                                                                                                                                                                                                                                                                                                                                                                                                                                                                                                                                                                                                                                                                                                                                                                                                                       

  EQUATIONS   1
     hOutside = 64
*$UNIT_NAME hOutside                                                                                                                                                                                                                                                                                                                                                                                                                                                                                                                                                                                                                                                                                                                                                                                                                                                                                                                                                                                                                    
*$LAYER Main                                                                                                                                                                                                                                                                                                                                                                                                                                                                                                                                                                                                                                                                                                                                                                                                                                                                                                                                                                                                                            
*$POSITION 163 204                                                                                                                                                                                                                                                                                                                                                                                                                                                                                                                                                                                                                                                                                                                                                                                                                                                                                                                                                                                                                      
*$UNIT_NUMBER 14                                                                                                                                                                                                                                                                                                                                                                                                                                                                                                                                                                                                                                                                                                                                                                                                                                                                                                                                                                                                                        
*------------------------------------------------------------------------------                                                                                                                                                                                                                                                                                                                                                                                                                                                                                                                                                                                                                                                                                                                                                                                                                                                                                                                                                         
* Model "Type56" (Type 56)                                                                                                                                                                                                                                                                                                                                                                                                                                                                                                                                                                                                                                                                                                                                                                                                                                                                                                                                                                                                              
*                                                                                                                                                                                                                                                                                                                                                                                                                                                                                                                                                                                                                                                                                                                                                                                                                                                                                                                                                                                                                                       

  UNIT    7     TYPE   56     Type56                                        
*$UNIT_NAME Type56                                                                                                                                                                                                                                                                                                                                                                                                                                                                                                                                                                                                                                                                                                                                                                                                                                                                                                                                                                                                                      
*$MODEL \TRNSYS\TRNSYS Next Version\Studio\Proformas\Loads and Structures\Multi-Zone Building\Type56.tmf                                                                                                                                                                                                                                                                                                                                                                                                                                                                                                                                                                                                                                                                                                                                                                                                                                                                                                                                
*$POSITION 325 368                                                                                                                                                                                                                                                                                                                                                                                                                                                                                                                                                                                                                                                                                                                                                                                                                                                                                                                                                                                                                      
*$LAYER Main #                                                                                                                                                                                                                                                                                                                                                                                                                                                                                                                                                                                                                                                                                                                                                                                                                                                                                                                                                                                                                          
*$#                                                                                                                                                                                                                                                                                                                                                                                                                                                                                                                                                                                                                                                                                                                                                                                                                                                                                                                                                                                                                                     
       PARAMETERS   3
! 1 Logical unit for building description file (.bui)                                                                                                                                                                                                                                                                                                                                                                                                                                                                                                                                                                                                                                                                                                                                                                                                                                                                                                                                                                               
! 2 Star network calculation switch                                                                                                                                                                                                                                                                                                                                                                                                                                                                                                                                                                                                                                                                                                                                                                                                                                                                                                                                                                                                  
[...]
    Message               : "TESS_LoadsStructures_v17.2.01_64.dll" was found but did not contain any components from the input file.
 
 
*** Notice at time        :         0.000000
    Generated by Unit     : Not applicable or not available
    Generated by Type     : Not applicable or not available
    Message               : "TESS_Optimization_v17.2.01_64.dll" was found but did not contain any components from the input file.
 
 
*** Notice at time        :         0.000000
    Generated by Unit     : Not applicable or not available
    Generated by Type     : Not applicable or not available
    Message               : "TESS_Solar_v17.2.01_64.dll" was found but did not contain any components from the input file.
 
 
*** Notice at time        :         0.000000
    Generated by Unit     : Not applicable or not available
    Generated by Type     : Not applicable or not available
    Message               : "TESS_Storage_v17.2.01_64.dll" was found but did not contain any components from the input file.
 
 
*** Notice at time        :         0.000000
    Generated by Unit     : Not applicable or not available
    Generated by Type     : Not applicable or not available
    Message               : "TESS_Utility_v17.2.01_64.dll" was found but did not contain any components from the input file.
 
 
*** Notice at time        :         0.000000
    Generated by Unit     : Not applicable or not available
    Generated by Type     : Not applicable or not available
    Message               : "Type1230_v17.2.01_x64.dll" was found but did not contain any components from the input file.
 
 
*** Notice at time        :         0.000000
    Generated by Unit     : Not applicable or not available
    Generated by Type     : Not applicable or not available
    Message               : "Type1265_v17.2.01_x64.dll" was found but did not contain any components from the input file.
 
 
*** Notice at time        :         0.000000
    Generated by Unit     : Not applicable or not available
    Generated by Type     : Not applicable or not available
    Message               : "Type1267_v17.2.01_x64.dll" was found but did not contain any components from the input file.
 
 
*** Notice at time        :         0.000000
    Generated by Unit     : Not applicable or not available
    Generated by Type     : Not applicable or not available
    Message               : "Type1270_v17.2.01_x64.dll" was found but did not contain any components from the input file.
 
 
*** Notice at time        :         0.000000
    Generated by Unit     : Not applicable or not available
    Generated by Type     : Not applicable or not available
    Message               : "Type1272_v17.2.01_x64.dll" was found but did not contain any components from the input file.
 
 
*** Notice at time        :         0.000000
    Generated by Unit     : Not applicable or not available
    Generated by Type     : Not applicable or not available
    Message               : "Type159.dll" was found but did not contain any components from the input file.
 
 
*** Notice at time        :         0.000000
    Generated by Unit     : Not applicable or not available
    Generated by Type     : Not applicable or not available
    Message               : "Type169.dll" was found but did not contain any components from the input file.
 
 
*** Notice at time        :         0.000000
    Generated by Unit     : Not applicable or not available
    Generated by Type     : Not applicable or not available
    Message               : The following Types were loaded from "Type56_x64.dll": Type56
 
 
*** Notice at time        :         0.000000
    Generated by Unit     : Not applicable or not available
    Generated by Type     : Not applicable or not available
    Message               : "Type76Lib64.dll" was found but did not contain any components from the input file.
 
 
*** Notice at time        :         0.000000
    Generated by Unit     : Not applicable or not available
    Generated by Type     : Not applicable or not available
    Message               : "Type82Lib64.dll" was found but did not contain any components from the input file.
 
 
*** Notice at time        :         0.000000
    Generated by Unit     : Not applicable or not available
    Generated by Type     : Not applicable or not available
    TRNSYS Message    199 : TRNSYS found at least one user DLL in the UserLib directory. (Note: Only DLL's including Types that are used in the simulation are loaded)
    Reported information  : 3 user DLLs were loaded after searching in "C:\Trnsys18\UserLib\ReleaseDLLs"
 
 
*** Notice at time        :         0.000000
    Generated by Unit     :     7
    Generated by Type     :    56
    Message               : Star network calculation: every iteration step of TRNSYS
 

*** The TRNSYS components will be called in the following order:
      Unit #   15   Type #   15
      Unit #    7   Type #   56
      Unit #   16   Type #  112
      Unit #   17   Type #  121
      Unit #   18   Type #  921
      Unit #   19   Type #  108
      Unit #   20   Type #  108
      Unit #   21   Type #  954
      Unit #   22   Type #  112
      Unit #   23   Type #  508
      Unit #   24   Type #  114
      Unit #   26   Type #   31
      Unit #   27   Type #   31
      Unit #   25   Type #  655
      Unit #   29   Type #  108
      Unit #   28   Type #  108
      Unit #   10   Type #   65
 
*** Warning at time       :         0.083333
    Generated by Unit     :    18
    Generated by Type     :   921
    Message               : The referenced UNIT has called the PSYCHROMETRICS routine one or more times during the simulation with an enthalpy greater than that for saturated air at the given dry bulb temperature. The air was assumed saturated and the enthalpy set for this condition.
 

 *TRACE*  UNIT   7  TYPE   56  AT TIME   1.6475000000000000E+02  ITERATION     31  CALL   13887  ITERATIVE CALL
 P  5.6000000000000000E+01  1.0000000000000000E+00  1.0000000000000000E+00
 I  5.6583333333333332E+00  9.6000000000000000E+01  1.7481274357919006E+00  5.6583333333333332E+00  9.0000000000000000E+01
 I -9.0000000000000000E+01  0.0000000000000000E+00  0.0000000000000000E+00  0.0000000000000000E+00  0.0000000000000000E+00
 I  0.0000000000000000E+00  0.0000000000000000E+00  0.0000000000000000E+00  0.0000000000000000E+00  0.0000000000000000E+00
 I  0.0000000000000000E+00  9.0000000000000000E+01  9.0000000000000000E+01  9.0000000000000000E+01  9.0000000000000000E+01
 I  9.0000000000000000E+01  2.0000000000000001E-01  6.4000000000000000E+01  1.2039234754020085E+03  1.4516401291593874E+01
 I  8.0205120781058298E+01  0.0000000000000000E+00  2.0371805460053913E+01  9.4637750740715859E+01  1.5000000000000000E+03
 I  4.9998989814160613E+00  9.5492376041108969E+01
 O  2.0371805248067801E+01  2.5018173041652187E+01  7.2005047991650439E+00  0.0000000000000000E+00  0.0000000000000000E+00
 O  0.0000000000000000E+00 -3.1810935711797456E+03  1.0709532233228419E+03  1.9370037531562184E+03 -4.8404521154423828E+03
 O -1.9903183289652673E+03 -1.5854532791060103E+02  0.0000000000000000E+00 -1.2795049497727343E+04 -3.3405196313429556E+03
 O  0.0000000000000000E+00 -1.1755310517768496E+02  0.0000000000000000E+00  8.1000000000000000E+03  1.1050000000000000E+04
 O  1.5000000000000000E+03  7.5617455706136684E+02  4.9022577204627069E+03 -7.0013238856747776E+03  9.4637751979871894E+01
 O  4.8761612527473261E+01  8.2297585246596043E+01  1.9481088180423630E+01  1.9481072773112658E+01  1.9481060745612126E+01
 O  2.0133515850945511E+01  1.9344713578833868E+01  1.9677461190036542E+01  1.9649123381315221E+01  2.1014750794858884E+01
 O  1.7857809728421834E+01

 *TRACE*  UNIT  21  TYPE  954  AT TIME   1.6475000000000000E+02  ITERATION     31  CALL    6956  ITERATIVE CALL
 P  2.0000000000000000E+00  5.4000000000000000E+01  5.5000000000000000E+01  6.0000000000000000E+00  5.0000000000000000E+00
 P  4.0000000000000000E+00  1.6000000000000000E+01  4.0000000000000000E+00  3.0000000000000000E+00  3.0000000000000000E+02
 P  6.7110000000000002E+02  7.4570000000000005E+02  1.6128000000000000E+04  1.1916000000000000E+04  6.0480000000000000E+03
 P  7.3800000000000000E+03  4.8240000000000000E+03  3.0000000000000000E+02  4.1899999999999995E+00  5.0000000000000000E+01
 P  0.0000000000000000E+00
 I  2.5018173041652187E+01  8.0000000000000019E-03  4.8761612527473261E+01  0.0000000000000000E+00  9.5731556871453238E-01
 I  0.0000000000000000E+00  5.6583333333333332E+00  5.0000000000000010E-03  9.6000000000000000E+01  2.0000000000000000E+01
 I  1.0000000000000000E+00  0.0000000000000000E+00  1.0000000000000000E+00  0.0000000000000000E+00  2.0000000000000000E+01
 I  0.0000000000000000E+00  5.0000000000000000E+01  5.0000000000000000E+01  0.0000000000000000E+00  0.0000000000000000E+00
 O  1.4500290805568055E+01  1.0080057217457175E-02  9.3684163022680906E+01  1.2044990101861558E+03  9.5731556871453238E-01
 O  1.2982317162231258E+04  1.2754327700609943E+04  2.2798946162131506E+02  0.0000000000000000E+00  1.9264383956343419E+04
 O  0.0000000000000000E+00  0.0000000000000000E+00  6.2820667941121619E+03  2.0665678331212387E+00  7.0531960144427872E+00
 O  6.7110000000000002E+02  7.4570000000000005E+02  4.8652667941121617E+03  6.2820667941121619E+03  1.4500290805568055E+01
 O  0.0000000000000000E+00  2.0000000000000000E+01  0.0000000000000000E+00  0.0000000000000000E+00  0.0000000000000000E+00
 O  6.2820667941121619E+03  0.0000000000000000E+00  1.2982317162231258E+04

 *TRACE*  UNIT   7  TYPE   56  AT TIME   1.6475000000000000E+02  ITERATION     32  CALL   13888  ITERATIVE CALL
 P  5.6000000000000000E+01  1.0000000000000000E+00  1.0000000000000000E+00
 I  5.6583333333333332E+00  9.6000000000000000E+01  1.7481274357919006E+00  5.6583333333333332E+00  9.0000000000000000E+01
 I -9.0000000000000000E+01  0.0000000000000000E+00  0.0000000000000000E+00  0.0000000000000000E+00  0.0000000000000000E+00
 I  0.0000000000000000E+00  0.0000000000000000E+00  0.0000000000000000E+00  0.0000000000000000E+00  0.0000000000000000E+00
 I  0.0000000000000000E+00  9.0000000000000000E+01  9.0000000000000000E+01  9.0000000000000000E+01  9.0000000000000000E+01
 I  9.0000000000000000E+01  2.0000000000000001E-01  6.4000000000000000E+01  1.2044990101861558E+03  1.4500290805568055E+01
 I  9.3684163022680906E+01  0.0000000000000000E+00  2.0371805460053913E+01  9.4637750740715859E+01  1.5000000000000000E+03
 I  4.9998989814160613E+00  9.5492376041108969E+01
 O  2.0371805245017949E+01  2.5017216523456483E+01  7.2005047321599012E+00  0.0000000000000000E+00  0.0000000000000000E+00
 O  0.0000000000000000E+00 -3.1810937204059537E+03  1.0724628895361318E+03  1.9369996242452664E+03 -4.8404521144390401E+03
 O -1.9902199926295550E+03 -1.5854532102203348E+02  0.0000000000000000E+00 -1.2819638136806712E+04 -3.3405195296291490E+03
 O  0.0000000000000000E+00 -1.1752890534449490E+02  0.0000000000000000E+00  8.1000000000000000E+03  1.1050000000000000E+04
 O  1.5000000000000000E+03  7.5617454470946655E+02  4.9003446840712995E+03 -7.0013242207004914E+03  9.4637751997699652E+01
 O  5.0211703799902288E+01  8.2297585624420279E+01  1.9481088164839530E+01  1.9481072757528558E+01  1.9481060730028027E+01
 O  2.0133515839151304E+01  1.9344713533294932E+01  1.9677461176328290E+01  1.9649123363387201E+01  2.1014750412467471E+01
 O  1.7857809706404090E+01

 *TRACE*  UNIT  21  TYPE  954  AT TIME   1.6475000000000000E+02  ITERATION     32  CALL    6957  ITERATIVE CALL
 P  2.0000000000000000E+00  5.4000000000000000E+01  5.5000000000000000E+01  6.0000000000000000E+00  5.0000000000000000E+00
 P  4.0000000000000000E+00  1.6000000000000000E+01  4.0000000000000000E+00  3.0000000000000000E+00  3.0000000000000000E+02
 P  6.7110000000000002E+02  7.4570000000000005E+02  1.6128000000000000E+04  1.1916000000000000E+04  6.0480000000000000E+03
 P  7.3800000000000000E+03  4.8240000000000000E+03  3.0000000000000000E+02  4.1899999999999995E+00  5.0000000000000000E+01
 P  0.0000000000000000E+00
 I  2.5017216523456483E+01  8.0000000000000019E-03  5.0211703799902288E+01  0.0000000000000000E+00  9.5731556871453238E-01
 I  0.0000000000000000E+00  5.6583333333333332E+00  5.0000000000000010E-03  9.6000000000000000E+01  2.0000000000000000E+01
 I  1.0000000000000000E+00  0.0000000000000000E+00  1.0000000000000000E+00  0.0000000000000000E+00  2.0000000000000000E+01
 I  0.0000000000000000E+00  5.0000000000000000E+01  5.0000000000000000E+01  0.0000000000000000E+00  0.0000000000000000E+00
 O  1.4516401291593874E+01  8.6187838409342628E-03  8.0205120781058298E+01  1.2039234754020085E+03  9.5731556871453238E-01
 O  1.8335364635317324E+04  1.2727547094002261E+04  5.6078175413150639E+03  0.0000000000000000E+00  2.4629171223236091E+04
 O  0.0000000000000000E+00  0.0000000000000000E+00  6.2938065879187698E+03  2.9132392899573429E+00  9.9428856966244101E+00
 O  6.7110000000000002E+02  7.4570000000000005E+02  4.8770065879187696E+03  6.2938065879187698E+03  1.4516401291593874E+01
 O  2.1254561592148291E+00  2.0000000000000000E+01  0.0000000000000000E+00  0.0000000000000000E+00  0.0000000000000000E+00
 O  6.2938065879187698E+03  0.0000000000000000E+00  1.8335364635317324E+04
 
*** Warning at time       :       164.750000
    Generated by Unit     : Not applicable or not available
    Generated by Type     : Not applicable or not available
    TRNSYS Message    441 : The inputs to the listed units have not converged at this timestep. The values at the last iteration will be used and the simulation will proceed.
    Reported information  : UNITS: 7  21
 
 
*** Warning at time       :       168.000000
    Generated by Unit     :    15
    Generated by Type     :    15
    Message               : The calculated horizontal diffuse radiation exceeded the horizontal extraterrestrial radiation and was set to the extraterrestrial for 4 timesteps during the simulation.
 
 
*** Warning at time       :       168.000000
    Generated by Unit     :    15
    Generated by Type     :    15
    Message               : The total horizontal radiation calculated from the sum of the beam and diffuse horizontal radiation exceeded the horizontal extraterrestrial radiation and was set to the extraterrestrial. The beam and diffuse radiation on the horizontal were then calculated base on their original ratios for 7 timesteps during the simulation.
 
 
*** Notice at time        :       168.000000
    Generated by Unit     :     7
    Generated by Type     :    56
    Message               : Information on surface condensation: Surface outputs ntype 48,49 for inside/outside surface(s) may be used for further investigation on time dependant behaviour!
 
 
*** Warning at time       :       168.000000
    Generated by Unit     :    19
    Generated by Type     :   108
    Message               : The controller was stuck during 24 percent of the time during the simulation.
 
 
*** Warning at time       :       168.000000
    Generated by Unit     :    20
    Generated by Type     :   108
    Message               : The controller was stuck during 21 percent of the time during the simulation.
 
 
*** Warning at time       :       168.000000
    Generated by Unit     :    22
    Generated by Type     :   112
    Message               : Fan mass balance failed during 2016 timesteps. Please check the connections.
 
 
*** Warning at time       :       168.000000
    Generated by Unit     :    29
    Generated by Type     :   108
    Message               : The controller was stuck during 0 percent of the time during the simulation.
 
 
*** Warning at time       :       168.000000
    Generated by Unit     :    28
    Generated by Type     :   108
    Message               : The controller was stuck during 0 percent of the time during the simulation.
 
 
*** Warning at time       :       168.000000
    Generated by Unit     : Not applicable or not available
    Generated by Type     : Not applicable or not available
    Message               : The simulation failed to converge during 1 timesteps (0% of the time).
 
 
*** Warning at time       :       168.000000
    Generated by Unit     :    25
    Generated by Type     :   655
    Message               : The file C:\Trnsys18\Tess Models\SampleCatalogData\AirCooledChiller\Samp_C.Dat was called 2015 times (99% of the time) with a first independent variable value below the range supplied in the data file. Data is interpolated within the data file range but is not extrapolated beyond the range. Performance of the equipment modeled by this UNIT may be incorrect.
 
 
*** Warning at time       :       168.000000
    Generated by Unit     :    25
    Generated by Type     :   655
    Message               : The file C:\Trnsys18\Tess Models\SampleCatalogData\AirCooledChiller\Samp_C.Dat was called 2015 times (99% of the time) with a second independent variable value below the range supplied in the data file. Data is interpolated within the data file range but is not extrapolated beyond the range. Performance of the equipment modeled by this UNIT may be incorrect.
 
 
*** Warning at time       :       168.000000
    Generated by Unit     :    21
    Generated by Type     :   954
    Message               : The file C:\Trnsys18\Tess Models\SampleCatalogData\AirSourceHeatPump\Normalized\ASHP_Normalized_Cooling.dat was called 388 times (19% of the time) with a first independent variable value below the range supplied in the data file. Data is interpolated within the data file range but is not extrapolated beyond the range. Performance of the equipment modeled by this UNIT may be incorrect.
 
 
*** Warning at time       :       168.000000
    Generated by Unit     :    21
    Generated by Type     :   954
    Message               : The file C:\Trnsys18\Tess Models\SampleCatalogData\AirSourceHeatPump\Normalized\ASHP_Normalized_Cooling.dat was called 37 times (1% of the time) with a second independent variable value above the range supplied in the data file. Data is interpolated within the data file range but is not extrapolated beyond the range. Performance of the equipment modeled by this UNIT may be incorrect.
 
 
*** Warning at time       :       168.000000
    Generated by Unit     :    21
    Generated by Type     :   954
    Message               : The file C:\Trnsys18\Tess Models\SampleCatalogData\AirSourceHeatPump\Normalized\ASHP_Normalized_Cooling.dat was called 136 times (6% of the time) with a third independent variable value below the range supplied in the data file. Data is interpolated within the data file range but is not extrapolated beyond the range. Performance of the equipment modeled by this UNIT may be incorrect.
 


*********************************************************************************************************
The Following UNIT Numbers, TYPE Numbers, and Logical Units Were Used in the Supplied TRNSYS Input File: 
                         7            15                 4
                        10            31                 6
                        15            56                 9
                        16            65                53
                        17           108                54
                        18           112                55
                        19           114                56
                        20           121                57
                        21           508                58
                        22           655                59
                        23           921                60
                        24           954                61
                        25                              62
                        26                              63
                        27                              64
                        28                              65
                        29


*********************************************************************************************************
Total TRNSYS Calculation Time:                          8.6000 Seconds
