            TRNSYS - the TRaNsient SYstem Simulation program

   The Solar Energy Lab at the University of Wisconsin - Madison, USA
Le Centre Scientifique et Technique du Batiment, Sophia Antipolis, France
           Transsolar Energietechnik GmBH, Stuttgart, Germany
        Thermal Energy System Specialists, LLC, Madison Wisconsin, USA

                           Release 18.02.0002
                           User ID  18-F1234

Listing file for: "C:\Users\YJT\Desktop\Midterm_defense_TRNSYS\onload_trnsys_matlab\trnsys\oneload.dck"
 
*** Notice at time        :         0.000000
    Generated by Unit     : Not applicable or not available
    Generated by Type     : Not applicable or not available
    Message               : The TRNSYS Executable (TRNExe.exe) and main DLL (TRNDll.dll) are located in "C:\TRNSYS18\Exe"
 

 *** Pre-Processing the TRNSYS EQUATIONs and CONSTANTs to check for fatal errors.

 *** Pre-Processing of EQUATIONs and CONSTANTs completed with no fatal errors found.

 *** Evaluating the EQUATIONs and CONSTANTs to determine their initial values.

 *** Finished evaluating the EQUATIONs and CONSTANTs and ready to begin processing the remainder of the TRNSYS input file.

  VERSION        18
*******************************************************************************                                                                                                                                                                                                                                                                                                                                                                                                                                                                                                                                                                                                                                                                                                                                                                                                                                                                                                                                                         
*** TRNSYS input file (deck) generated by TrnsysStudio                                                                                                                                                                                                                                                                                                                                                                                                                                                                                                                                                                                                                                                                                                                                                                                                                                                                                                                                                                                  
*** on 星期一, 一月 16, 2023 at 18:20                                                                                                                                                                                                                                                                                                                                                                                                                                                                                                                                                                                                                                                                                                                                                                                                                                                                                                                                                                                                   
*** from TrnsysStudio project: C:\Users\YJT\Desktop\Midterm_defense_TRNSYS\onload_trnsys_matlab\trnsys\oneload.tpf                                                                                                                                                                                                                                                                                                                                                                                                                                                                                                                                                                                                                                                                                                                                                                                                                                                                                                                      
***                                                                                                                                                                                                                                                                                                                                                                                                                                                                                                                                                                                                                                                                                                                                                                                                                                                                                                                                                                                                                                     
*** If you edit this file, use the File/Import TRNSYS Input File function in                                                                                                                                                                                                                                                                                                                                                                                                                                                                                                                                                                                                                                                                                                                                                                                                                                                                                                                                                            
*** TrnsysStudio to update the project.                                                                                                                                                                                                                                                                                                                                                                                                                                                                                                                                                                                                                                                                                                                                                                                                                                                                                                                                                                                                 
***                                                                                                                                                                                                                                                                                                                                                                                                                                                                                                                                                                                                                                                                                                                                                                                                                                                                                                                                                                                                                                     
*** If you have problems, questions or suggestions please contact your local                                                                                                                                                                                                                                                                                                                                                                                                                                                                                                                                                                                                                                                                                                                                                                                                                                                                                                                                                            
*** TRNSYS distributor or mailto:software@cstb.fr                                                                                                                                                                                                                                                                                                                                                                                                                                                                                                                                                                                                                                                                                                                                                                                                                                                                                                                                                                                       
***                                                                                                                                                                                                                                                                                                                                                                                                                                                                                                                                                                                                                                                                                                                                                                                                                                                                                                                                                                                                                                     
*******************************************************************************                                                                                                                                                                                                                                                                                                                                                                                                                                                                                                                                                                                                                                                                                                                                                                                                                                                                                                                                                         
*******************************************************************************                                                                                                                                                                                                                                                                                                                                                                                                                                                                                                                                                                                                                                                                                                                                                                                                                                                                                                                                                         
*** Units                                                                                                                                                                                                                                                                                                                                                                                                                                                                                                                                                                                                                                                                                                                                                                                                                                                                                                                                                                                                                               
*******************************************************************************                                                                                                                                                                                                                                                                                                                                                                                                                                                                                                                                                                                                                                                                                                                                                                                                                                                                                                                                                         
*******************************************************************************                                                                                                                                                                                                                                                                                                                                                                                                                                                                                                                                                                                                                                                                                                                                                                                                                                                                                                                                                         
*** Control cards                                                                                                                                                                                                                                                                                                                                                                                                                                                                                                                                                                                                                                                                                                                                                                                                                                                                                                                                                                                                                       
*******************************************************************************                                                                                                                                                                                                                                                                                                                                                                                                                                                                                                                                                                                                                                                                                                                                                                                                                                                                                                                                                         
* START, STOP and STEP                                                                                                                                                                                                                                                                                                                                                                                                                                                                                                                                                                                                                                                                                                                                                                                                                                                                                                                                                                                                                  

  CONSTANTS   3
     START=8016
     STOP=8036
     STEP=5/60
! Start time	End time	Time step                                                                                                                                                                                                                                                                                                                                                                                                                                                                                                                                                                                                                                                                                                                                                                                                                                                                                                                                                                          

  SIMULATION         8.0160000000000000E+03    8.0360000000000000E+03    8.3333333333333329E-02
! Integration	 Convergence                                                                                                                                                                                                                                                                                                                                                                                                                                                                                                                                                                                                                                                                                                                                                                                                                                                                                                                                                                                     

  TOLERANCES         1.0000000000000002E-03    1.0000000000000002E-03
! Max iterations	Max warnings	Trace limit                                                                                                                                                                                                                                                                                                                                                                                                                                                                                                                                                                                                                                                                                                                                                                                                                                                                                                                                                                       

  LIMITS        30   3000000        31
! TRNSYS numerical integration solver method                                                                                                                                                                                                                                                                                                                                                                                                                                                                                                                                                                                                                                                                                                                                                                                                                                                                                                                                                                                  

  DFQ   1
! TRNSYS output file width, number of characters                                                                                                                                                                                                                                                                                                                                                                                                                                                                                                                                                                                                                                                                                                                                                                                                                                                                                                                                                                            

  WIDTH    80
! NOLIST statement                                                                                                                                                                                                                                                                                                                                                                                                                                                                                                                                                                                                                                                                                                                                                                                                                                                                                                                                                                                                            

  LIST
! MAP statement                                                                                                                                                                                                                                                                                                                                                                                                                                                                                                                                                                                                                                                                                                                                                                                                                                                                                                                                                                                                                    
! Solver statement	Minimum relaxation factor	Maximum relaxation factor                                                                                                                                                                                                                                                                                                                                                                                                                                                                                                                                                                                                                                                                                                                                                                                                                                                                                                                                                  

  SOLVER  0
    1.000000000000000    
    1.000000000000000    
! Nan DEBUG statement                                                                                                                                                                                                                                                                                                                                                                                                                                                                                                                                                                                                                                                                                                                                                                                                                                                                                                                                                                                                    

  NAN_CHECK   0
! Overwrite DEBUG statement                                                                                                                                                                                                                                                                                                                                                                                                                                                                                                                                                                                                                                                                                                                                                                                                                                                                                                                                                                                         

  OVERWRITE_CHECK   0
! disable time report                                                                                                                                                                                                                                                                                                                                                                                                                                                                                                                                                                                                                                                                                                                                                                                                                                                                                                                                                                                                   

  TIME_REPORT   0
! EQUATION SOLVER statement                                                                                                                                                                                                                                                                                                                                                                                                                                                                                                                                                                                                                                                                                                                                                                                                                                                                                                                                                                                               

  EQUATION SOLVING METHOD         0
* User defined CONSTANTS                                                                                                                                                                                                                                                                                                                                                                                                                                                                                                                                                                                                                                                                                                                                                                                                                                                                                                                                                                                                                
*$USER_CONSTANTS                                                                                                                                                                                                                                                                                                                                                                                                                                                                                                                                                                                                                                                                                                                                                                                                                                                                                                                                                                                                                        

  EQUATIONS   1
     nPlots = (STOP-START)/168.
*$USER_CONSTANTS_END                                                                                                                                                                                                                                                                                                                                                                                                                                                                                                                                                                                                                                                                                                                                                                                                                                                                                                                                                                                                                    
* Model "CoolingTower" (Type 51)                                                                                                                                                                                                                                                                                                                                                                                                                                                                                                                                                                                                                                                                                                                                                                                                                                                                                                                                                                                                        
*                                                                                                                                                                                                                                                                                                                                                                                                                                                                                                                                                                                                                                                                                                                                                                                                                                                                                                                                                                                                                                       

  UNIT    3     TYPE   51     CoolingTower                                  
*$UNIT_NAME CoolingTower                                                                                                                                                                                                                                                                                                                                                                                                                                                                                                                                                                                                                                                                                                                                                                                                                                                                                                                                                                                                                
*$MODEL .\HVAC\Cooling Towers\User-Supplied Coefficients\TYPE51b.tmf                                                                                                                                                                                                                                                                                                                                                                                                                                                                                                                                                                                                                                                                                                                                                                                                                                                                                                                                                                    
*$POSITION 558 1078                                                                                                                                                                                                                                                                                                                                                                                                                                                                                                                                                                                                                                                                                                                                                                                                                                                                                                                                                                                                                     
*$LAYER Main #                                                                                                                                                                                                                                                                                                                                                                                                                                                                                                                                                                                                                                                                                                                                                                                                                                                                                                                                                                                                                          
       PARAMETERS  11
! 1 Calculation mode                                                                                                                                                                                                                                                                                                                                                                                                                                                                                                                                                                                                                                                                                                                                                                                                                                                                                                                                                                                                                 
! 2 Flow geometry                                                                                                                                                                                                                                                                                                                                                                                                                                                                                                                                                                                                                                                                                                                                                                                                                                                                                                                                                                                                                    
! 3 Number of tower cells                                                                                                                                                                                                                                                                                                                                                                                                                                                                                                                                                                                                                                                                                                                                                                                                                                                                                                                                                                                                            
! 4 Maximum cell flow rate                                                                                                                                                                                                                                                                                                                                                                                                                                                                                                                                                                                                                                                                                                                                                                                                                                                                                                                                                                                                       
! 5 Fan power at maximum flow                                                                                                                                                                                                                                                                                                                                                                                                                                                                                                                                                                                                                                                                                                                                                                                                                                                                                                                                                                                                        
! 6 Minimum cell flow rate                                                                                                                                                                                                                                                                                                                                                                                                                                                                                                                                                                                                                                                                                                                                                                                                                                                                                                                                                                                                          
! 7 Sump volume                                                                                                                                                                                                                                                                                                                                                                                                                                                                                                                                                                                                                                                                                                                                                                                                                                                                                                                                                                                                                     
! 8 Initial sump temperature                                                                                                                                                                                                                                                                                                                                                                                                                                                                                                                                                                                                                                                                                                                                                                                                                                                                                                                                                                                                      
! 9 Mass transfer constant                                                                                                                                                                                                                                                                                                                                                                                                                                                                                                                                                                                                                                                                                                                                                                                                                                                                                                                                                                                                         
! 10 Mass transfer exponent                                                                                                                                                                                                                                                                                                                                                                                                                                                                                                                                                                                                                                                                                                                                                                                                                                                                                                                                                                                                      
! 11 Print performance results?                                                                                                                                                                                                                                                                                                                                                                                                                                                                                                                                                                                                                                                                                                                                                                                                                                                                                                                                                                                                      
       1.0000000000000000E+00    1.0000000000000000E+00    1.0000000000000000E+00    2.7885000000000000E+04    8.0000000000000000E+00
       1.0000000000000000E+01    1.5000000000000000E+01    1.5000000000000000E+01    2.2999999999999998E+00   -7.2000000000000008E-01
       1.0000000000000000E+00
       INPUTS    6
! Type155:source outlet temperature ->Water inlet temperature                                                                                                                                                                                                                                                                                                                                                                                                                                                                                                                                                                                                                                                                                                                                                                                                                                                                                                                                                                    
! Type155:source outlet flow rate ->Inlet water flow rate                                                                                                                                                                                                                                                                                                                                                                                                                                                                                                                                                                                                                                                                                                                                                                                                                                                                                                                                                                        
! TYPE33e:Dry bulb temperature ->Dry bulb temperature                                                                                                                                                                                                                                                                                                                                                                                                                                                                                                                                                                                                                                                                                                                                                                                                                                                                                                                                                                            
! TYPE33e:Wet bulb temperature ->Wet bulb temperature                                                                                                                                                                                                                                                                                                                                                                                                                                                                                                                                                                                                                                                                                                                                                                                                                                                                                                                                                                            
! [unconnected] Sump make-up temperature                                                                                                                                                                                                                                                                                                                                                                                                                                                                                                                                                                                                                                                                                                                                                                                                                                                                                                                                                                                           
! Type22-7:Control signal ->Relative fan speed for cell                                                                                                                                                                                                                                                                                                                                                                                                                                                                                                                                                                                                                                                                                                                                                                                                                                                                                                                                                                           
       31,1                                     31,2                                     30,7                                     30,2                                     CONST                                   
       9,1                                     
*** INITIAL INPUT VALUES                                                                                                                                                                                                                                                                                                                                                                                                                                                                                                                                                                                                                                                                                                                                                                                                                                                                                                                                                                                                                
       1.8000000000000000E+01    5.1552000000000000E+04    1.5000000000000000E+01    1.2000000000000000E+01    1.0000000000000000E+01
       1.0000000000000000E+00
*------------------------------------------------------------------------------                                                                                                                                                                                                                                                                                                                                                                                                                                                                                                                                                                                                                                                                                                                                                                                                                                                                                                                                                         
* Model "Type11f" (Type 11)                                                                                                                                                                                                                                                                                                                                                                                                                                                                                                                                                                                                                                                                                                                                                                                                                                                                                                                                                                                                             
*                                                                                                                                                                                                                                                                                                                                                                                                                                                                                                                                                                                                                                                                                                                                                                                                                                                                                                                                                                                                                                       

  UNIT    7     TYPE   11     Type11f                                       
*$UNIT_NAME Type11f                                                                                                                                                                                                                                                                                                                                                                                                                                                                                                                                                                                                                                                                                                                                                                                                                                                                                                                                                                                                                     
*$MODEL .\Hydronics\Flow Diverter\Other Fluids\Type11f.tmf                                                                                                                                                                                                                                                                                                                                                                                                                                                                                                                                                                                                                                                                                                                                                                                                                                                                                                                                                                              
*$POSITION 982 1096                                                                                                                                                                                                                                                                                                                                                                                                                                                                                                                                                                                                                                                                                                                                                                                                                                                                                                                                                                                                                     
*$LAYER Main #                                                                                                                                                                                                                                                                                                                                                                                                                                                                                                                                                                                                                                                                                                                                                                                                                                                                                                                                                                                                                          
       PARAMETERS   1
! 1 Controlled flow diverter mode                                                                                                                                                                                                                                                                                                                                                                                                                                                                                                                                                                                                                                                                                                                                                                                                                                                                                                                                                                                                    
       2.0000000000000000E+00
       INPUTS    3
! Type5b:Load side outlet temperature ->Inlet temperature                                                                                                                                                                                                                                                                                                                                                                                                                                                                                                                                                                                                                                                                                                                                                                                                                                                                                                                                                                        
! Type5b:Load side flow rate ->Inlet flow rate                                                                                                                                                                                                                                                                                                                                                                                                                                                                                                                                                                                                                                                                                                                                                                                                                                                                                                                                                                                   
! [unconnected] Control signal                                                                                                                                                                                                                                                                                                                                                                                                                                                                                                                                                                                                                                                                                                                                                                                                                                                                                                                                                                                                     
       37,3                                     37,4                                     CONST                                   
*** INITIAL INPUT VALUES                                                                                                                                                                                                                                                                                                                                                                                                                                                                                                                                                                                                                                                                                                                                                                                                                                                                                                                                                                                                                
       2.0000000000000000E+01    4.2960000000000000E+04    8.0000000000000004E-01
*------------------------------------------------------------------------------                                                                                                                                                                                                                                                                                                                                                                                                                                                                                                                                                                                                                                                                                                                                                                                                                                                                                                                                                         
* Model "Type11d" (Type 11)                                                                                                                                                                                                                                                                                                                                                                                                                                                                                                                                                                                                                                                                                                                                                                                                                                                                                                                                                                                                             
*                                                                                                                                                                                                                                                                                                                                                                                                                                                                                                                                                                                                                                                                                                                                                                                                                                                                                                                                                                                                                                       

  UNIT    8     TYPE   11     Type11d                                       
*$UNIT_NAME Type11d                                                                                                                                                                                                                                                                                                                                                                                                                                                                                                                                                                                                                                                                                                                                                                                                                                                                                                                                                                                                                     
*$MODEL .\Hydronics\Flow Mixer\Other Fluids\Type11d.tmf                                                                                                                                                                                                                                                                                                                                                                                                                                                                                                                                                                                                                                                                                                                                                                                                                                                                                                                                                                                 
*$POSITION 1016 1320                                                                                                                                                                                                                                                                                                                                                                                                                                                                                                                                                                                                                                                                                                                                                                                                                                                                                                                                                                                                                    
*$LAYER Main #                                                                                                                                                                                                                                                                                                                                                                                                                                                                                                                                                                                                                                                                                                                                                                                                                                                                                                                                                                                                                          
       PARAMETERS   1
[...]

 *TRACE*  UNIT  38  TYPE  682  AT TIME   8.0355000000000000E+03  ITERATION     32  CALL    7958  ITERATIVE CALL
 P  4.1899999999999995E+00
 I  2.2800657435111926E+01  5.1552000000000000E+04  1.0000000000000000E+02 -9.9900000000000000E+02  9.9900000000000000E+02
 O  2.2801120391902131E+01  5.1552000000000000E+04  0.0000000000000000E+00  9.9999999999841592E+01  0.0000000000000000E+00
 O  1.5840839751035674E-10

 *TRACE*  UNIT  40  TYPE  741  AT TIME   8.0355000000000000E+03  ITERATION     32  CALL    7958  ITERATIVE CALL
 P  5.1552000000000000E+04  4.1899999999999995E+00  1.0000000000000000E+03  3.0000000000000006E-02
 I  1.5202085020001265E+01  5.1552000000000000E+04  1.0000000000000000E+00  7.2000000000000008E-01  9.0000000000000002E-01
 I  2.4000000000000000E+02
 O  1.5216643492554963E+01  5.1552000000000000E+04  1.7183999999999996E+04  3.1446719999999987E+03  1.6668479999999990E+03
 O  1.2372480000000000E+04
 
*** Warning at time       :      8035.500000
    Generated by Unit     : Not applicable or not available
    Generated by Type     : Not applicable or not available
    TRNSYS Message    441 : The inputs to the listed units have not converged at this timestep. The values at the last iteration will be used and the simulation will proceed.
    Reported information  : UNITS: 31  38  40
 

 *TRACE*  UNIT  31  TYPE  155  AT TIME   8.0355833333333330E+03  ITERATION     31  CALL    7991  ITERATIVE CALL
 P  0.0000000000000000E+00  4.0000000000000000E+00  4.0000000000000000E+00  0.0000000000000000E+00  0.0000000000000000E+00
 I  1.6489319610712002E+01  8.9982121822254376E+03  1.5223463737599348E+01  5.1552000000000000E+04
 O  1.6480075904025362E+01  8.9982121822254376E+03  1.5199577440607341E+01  5.1552000000000000E+04

 *TRACE*  UNIT  38  TYPE  682  AT TIME   8.0355833333333330E+03  ITERATION     31  CALL    7991  ITERATIVE CALL
 P  4.1899999999999995E+00
 I  2.2800657434917493E+01  5.1552000000000000E+04  1.0000000000000000E+02 -9.9900000000000000E+02  9.9900000000000000E+02
 O  2.2801120391707698E+01  5.1552000000000000E+04  0.0000000000000000E+00  9.9999999999841592E+01  0.0000000000000000E+00
 O  1.5840839751035674E-10

 *TRACE*  UNIT  40  TYPE  741  AT TIME   8.0355833333333330E+03  ITERATION     31  CALL    7991  ITERATIVE CALL
 P  5.1552000000000000E+04  4.1899999999999995E+00  1.0000000000000000E+03  3.0000000000000006E-02
 I  1.5199577440607341E+01  5.1552000000000000E+04  1.0000000000000000E+00  7.2000000000000008E-01  9.0000000000000002E-01
 I  2.4000000000000000E+02
 O  1.5214135913161039E+01  5.1552000000000000E+04  1.7183999999999996E+04  3.1446719999999987E+03  1.6668479999999990E+03
 O  1.2372480000000000E+04

 *TRACE*  UNIT  31  TYPE  155  AT TIME   8.0355833333333330E+03  ITERATION     32  CALL    7992  ITERATIVE CALL
 P  0.0000000000000000E+00  4.0000000000000000E+00  4.0000000000000000E+00  0.0000000000000000E+00  0.0000000000000000E+00
 I  1.6489319610712002E+01  8.9982121822254376E+03  2.2801120391707698E+01  5.1552000000000000E+04
 O  1.6480077152136047E+01  8.9982121822254376E+03  2.2786098962351666E+01  5.1552000000000000E+04

 *TRACE*  UNIT  38  TYPE  682  AT TIME   8.0355833333333330E+03  ITERATION     32  CALL    7992  ITERATIVE CALL
 P  4.1899999999999995E+00
 I  1.5214135913161039E+01  5.1552000000000000E+04  1.0000000000000000E+02 -9.9900000000000000E+02  9.9900000000000000E+02
 O  1.5214598869951244E+01  5.1552000000000000E+04  0.0000000000000000E+00  9.9999999999841592E+01  0.0000000000000000E+00
 O  1.5840839751035674E-10

 *TRACE*  UNIT  40  TYPE  741  AT TIME   8.0355833333333330E+03  ITERATION     32  CALL    7992  ITERATIVE CALL
 P  5.1552000000000000E+04  4.1899999999999995E+00  1.0000000000000000E+03  3.0000000000000006E-02
 I  2.2786098962351666E+01  5.1552000000000000E+04  1.0000000000000000E+00  7.2000000000000008E-01  9.0000000000000002E-01
 I  2.4000000000000000E+02
 O  2.2800657434905364E+01  5.1552000000000000E+04  1.7183999999999996E+04  3.1446719999999987E+03  1.6668479999999990E+03
 O  1.2372480000000000E+04
 
*** Warning at time       :      8035.583333
    Generated by Unit     : Not applicable or not available
    Generated by Type     : Not applicable or not available
    TRNSYS Message    441 : The inputs to the listed units have not converged at this timestep. The values at the last iteration will be used and the simulation will proceed.
    Reported information  : UNITS: 31  38  40
 

 *TRACE*  UNIT  31  TYPE  155  AT TIME   8.0356666666666670E+03  ITERATION     31  CALL    8025  ITERATIVE CALL
 P  0.0000000000000000E+00  4.0000000000000000E+00  4.0000000000000000E+00  0.0000000000000000E+00  0.0000000000000000E+00
 I  1.6481231334735909E+01  8.9982121822254376E+03  2.2801120375227143E+01  5.1552000000000000E+04
 O  1.6471994270460549E+01  8.9982121822254376E+03  2.2786098944960450E+01  5.1552000000000000E+04

 *TRACE*  UNIT  38  TYPE  682  AT TIME   8.0356666666666670E+03  ITERATION     31  CALL    8025  ITERATIVE CALL
 P  4.1899999999999995E+00
 I  1.5211531863952077E+01  5.1552000000000000E+04  1.0000000000000000E+02 -9.9900000000000000E+02  9.9900000000000000E+02
 O  1.5211994820742282E+01  5.1552000000000000E+04  0.0000000000000000E+00  9.9999999999841592E+01  0.0000000000000000E+00
 O  1.5840839751035674E-10

 *TRACE*  UNIT  40  TYPE  741  AT TIME   8.0356666666666670E+03  ITERATION     31  CALL    8025  ITERATIVE CALL
 P  5.1552000000000000E+04  4.1899999999999995E+00  1.0000000000000000E+03  3.0000000000000006E-02
 I  2.2786098944960450E+01  5.1552000000000000E+04  1.0000000000000000E+00  7.2000000000000008E-01  9.0000000000000002E-01
 I  2.4000000000000000E+02
 O  2.2800657417514149E+01  5.1552000000000000E+04  1.7183999999999996E+04  3.1446719999999987E+03  1.6668479999999990E+03
 O  1.2372480000000000E+04

 *TRACE*  UNIT  31  TYPE  155  AT TIME   8.0356666666666670E+03  ITERATION     32  CALL    8026  ITERATIVE CALL
 P  0.0000000000000000E+00  4.0000000000000000E+00  4.0000000000000000E+00  0.0000000000000000E+00  0.0000000000000000E+00
 I  1.6481231334735909E+01  8.9982121822254376E+03  1.5211994820742282E+01  5.1552000000000000E+04
 O  1.6471993020520998E+01  8.9982121822254376E+03  1.5211031851244117E+01  5.1552000000000000E+04

 *TRACE*  UNIT  38  TYPE  682  AT TIME   8.0356666666666670E+03  ITERATION     32  CALL    8026  ITERATIVE CALL
 P  4.1899999999999995E+00
 I  2.2800657417514149E+01  5.1552000000000000E+04  1.0000000000000000E+02 -9.9900000000000000E+02  9.9900000000000000E+02
 O  2.2801120374304354E+01  5.1552000000000000E+04  0.0000000000000000E+00  9.9999999999841592E+01  0.0000000000000000E+00
 O  1.5840839751035674E-10

 *TRACE*  UNIT  40  TYPE  741  AT TIME   8.0356666666666670E+03  ITERATION     32  CALL    8026  ITERATIVE CALL
 P  5.1552000000000000E+04  4.1899999999999995E+00  1.0000000000000000E+03  3.0000000000000006E-02
 I  1.5211031851244117E+01  5.1552000000000000E+04  1.0000000000000000E+00  7.2000000000000008E-01  9.0000000000000002E-01
 I  2.4000000000000000E+02
 O  1.5225590323797816E+01  5.1552000000000000E+04  1.7183999999999996E+04  3.1446719999999987E+03  1.6668479999999990E+03
 O  1.2372480000000000E+04
 
*** Warning at time       :      8035.666667
    Generated by Unit     : Not applicable or not available
    Generated by Type     : Not applicable or not available
    TRNSYS Message    441 : The inputs to the listed units have not converged at this timestep. The values at the last iteration will be used and the simulation will proceed.
    Reported information  : UNITS: 31  38  40
 

 *TRACE*  UNIT  31  TYPE  155  AT TIME   8.0357500000000000E+03  ITERATION     31  CALL    8059  ITERATIVE CALL
 P  0.0000000000000000E+00  4.0000000000000000E+00  4.0000000000000000E+00  0.0000000000000000E+00  0.0000000000000000E+00
 I  1.6465489425934742E+01  8.9982121822254376E+03  1.5208873148768921E+01  5.1552000000000000E+04
 O  1.6456261610035014E+01  8.9982121822254376E+03  1.5207906510389718E+01  5.1552000000000000E+04

 *TRACE*  UNIT  38  TYPE  682  AT TIME   8.0357500000000000E+03  ITERATION     31  CALL    8059  ITERATIVE CALL
 P  4.1899999999999995E+00
 I  2.2800657367623561E+01  5.1552000000000000E+04  1.0000000000000000E+02 -9.9900000000000000E+02  9.9900000000000000E+02
 O  2.2801120324413766E+01  5.1552000000000000E+04  0.0000000000000000E+00  9.9999999999841592E+01  0.0000000000000000E+00
 O  1.5840839751035674E-10

 *TRACE*  UNIT  40  TYPE  741  AT TIME   8.0357500000000000E+03  ITERATION     31  CALL    8059  ITERATIVE CALL
 P  5.1552000000000000E+04  4.1899999999999995E+00  1.0000000000000000E+03  3.0000000000000006E-02
 I  1.5207906510389718E+01  5.1552000000000000E+04  1.0000000000000000E+00  7.2000000000000008E-01  9.0000000000000002E-01
 I  2.4000000000000000E+02
 O  1.5222464982943416E+01  5.1552000000000000E+04  1.7183999999999996E+04  3.1446719999999987E+03  1.6668479999999990E+03
 O  1.2372480000000000E+04

 *TRACE*  UNIT  31  TYPE  155  AT TIME   8.0357500000000000E+03  ITERATION     32  CALL    8060  ITERATIVE CALL
 P  0.0000000000000000E+00  4.0000000000000000E+00  4.0000000000000000E+00  0.0000000000000000E+00  0.0000000000000000E+00
 I  1.6465489425934742E+01  8.9982121822254376E+03  2.2801120324413766E+01  5.1552000000000000E+04
 O  1.6456262860371943E+01  8.9982121822254376E+03  2.2786098892241995E+01  5.1552000000000000E+04

 *TRACE*  UNIT  38  TYPE  682  AT TIME   8.0357500000000000E+03  ITERATION     32  CALL    8060  ITERATIVE CALL
 P  4.1899999999999995E+00
 I  1.5222464982943416E+01  5.1552000000000000E+04  1.0000000000000000E+02 -9.9900000000000000E+02  9.9900000000000000E+02
 O  1.5222927939733621E+01  5.1552000000000000E+04  0.0000000000000000E+00  9.9999999999841592E+01  0.0000000000000000E+00
 O  1.5840839751035674E-10

 *TRACE*  UNIT  40  TYPE  741  AT TIME   8.0357500000000000E+03  ITERATION     32  CALL    8060  ITERATIVE CALL
 P  5.1552000000000000E+04  4.1899999999999995E+00  1.0000000000000000E+03  3.0000000000000006E-02
 I  2.2786098892241995E+01  5.1552000000000000E+04  1.0000000000000000E+00  7.2000000000000008E-01  9.0000000000000002E-01
 I  2.4000000000000000E+02
 O  2.2800657364795693E+01  5.1552000000000000E+04  1.7183999999999996E+04  3.1446719999999987E+03  1.6668479999999990E+03
 O  1.2372480000000000E+04
 
*** Warning at time       :      8035.750000
    Generated by Unit     : Not applicable or not available
    Generated by Type     : Not applicable or not available
    TRNSYS Message    441 : The inputs to the listed units have not converged at this timestep. The values at the last iteration will be used and the simulation will proceed.
    Reported information  : UNITS: 31  38  40
 

 *TRACE*  UNIT  31  TYPE  155  AT TIME   8.0358333333333330E+03  ITERATION     31  CALL    8093  ITERATIVE CALL
 P  0.0000000000000000E+00  4.0000000000000000E+00  4.0000000000000000E+00  0.0000000000000000E+00  0.0000000000000000E+00
 I  1.6450068476206106E+01  8.9982121822254376E+03  2.2801120253189708E+01  5.1552000000000000E+04
 O  1.6440852195282865E+01  8.9982121822254376E+03  2.2786098819727989E+01  5.1552000000000000E+04

 *TRACE*  UNIT  38  TYPE  682  AT TIME   8.0358333333333330E+03  ITERATION     31  CALL    8093  ITERATIVE CALL
 P  4.1899999999999995E+00
 I  1.5219928194193136E+01  5.1552000000000000E+04  1.0000000000000000E+02 -9.9900000000000000E+02  9.9900000000000000E+02
 O  1.5220391150983341E+01  5.1552000000000000E+04  0.0000000000000000E+00  9.9999999999841592E+01  0.0000000000000000E+00
 O  1.5840839751035674E-10

 *TRACE*  UNIT  40  TYPE  741  AT TIME   8.0358333333333330E+03  ITERATION     31  CALL    8093  ITERATIVE CALL
 P  5.1552000000000000E+04  4.1899999999999995E+00  1.0000000000000000E+03  3.0000000000000006E-02
 I  2.2786098819727989E+01  5.1552000000000000E+04  1.0000000000000000E+00  7.2000000000000008E-01  9.0000000000000002E-01
 I  2.4000000000000000E+02
 O  2.2800657292281688E+01  5.1552000000000000E+04  1.7183999999999996E+04  3.1446719999999987E+03  1.6668479999999990E+03
 O  1.2372480000000000E+04

 *TRACE*  UNIT  31  TYPE  155  AT TIME   8.0358333333333330E+03  ITERATION     32  CALL    8094  ITERATIVE CALL
 P  0.0000000000000000E+00  4.0000000000000000E+00  4.0000000000000000E+00  0.0000000000000000E+00  0.0000000000000000E+00
 I  1.6450068476206106E+01  8.9982121822254376E+03  1.5220391150983341E+01  5.1552000000000000E+04
 O  1.6440850946956992E+01  8.9982121822254376E+03  1.5196625923614645E+01  5.1552000000000000E+04

 *TRACE*  UNIT  38  TYPE  682  AT TIME   8.0358333333333330E+03  ITERATION     32  CALL    8094  ITERATIVE CALL
 P  4.1899999999999995E+00
 I  2.2800657292281688E+01  5.1552000000000000E+04  1.0000000000000000E+02 -9.9900000000000000E+02  9.9900000000000000E+02
 O  2.2801120249071893E+01  5.1552000000000000E+04  0.0000000000000000E+00  9.9999999999841592E+01  0.0000000000000000E+00
 O  1.5840839751035674E-10

 *TRACE*  UNIT  40  TYPE  741  AT TIME   8.0358333333333330E+03  ITERATION     32  CALL    8094  ITERATIVE CALL
 P  5.1552000000000000E+04  4.1899999999999995E+00  1.0000000000000000E+03  3.0000000000000006E-02
 I  1.5196625923614645E+01  5.1552000000000000E+04  1.0000000000000000E+00  7.2000000000000008E-01  9.0000000000000002E-01
 I  2.4000000000000000E+02
 O  1.5211184396168344E+01  5.1552000000000000E+04  1.7183999999999996E+04  3.1446719999999987E+03  1.6668479999999990E+03
 O  1.2372480000000000E+04
 
*** Warning at time       :      8035.833333
    Generated by Unit     : Not applicable or not available
    Generated by Type     : Not applicable or not available
    TRNSYS Message    441 : The inputs to the listed units have not converged at this timestep. The values at the last iteration will be used and the simulation will proceed.
    Reported information  : UNITS: 31  38  40
 

 *TRACE*  UNIT  31  TYPE  155  AT TIME   8.0359166666666670E+03  ITERATION     31  CALL    8127  ITERATIVE CALL
 P  0.0000000000000000E+00  4.0000000000000000E+00  4.0000000000000000E+00  0.0000000000000000E+00  0.0000000000000000E+00
 I  1.6432881920402814E+01  8.9982121822254376E+03  1.5217259758263021E+01  5.1552000000000000E+04
 O  1.6423675852915231E+01  8.9982121822254376E+03  1.5193617318123332E+01  5.1552000000000000E+04

 *TRACE*  UNIT  38  TYPE  682  AT TIME   8.0359166666666670E+03  ITERATION     31  CALL    8127  ITERATIVE CALL
 P  4.1899999999999995E+00
 I  2.2800657196088562E+01  5.1552000000000000E+04  1.0000000000000000E+02 -9.9900000000000000E+02  9.9900000000000000E+02
 O  2.2801120152878767E+01  5.1552000000000000E+04  0.0000000000000000E+00  9.9999999999841592E+01  0.0000000000000000E+00
 O  1.5840839751035674E-10

 *TRACE*  UNIT  40  TYPE  741  AT TIME   8.0359166666666670E+03  ITERATION     31  CALL    8127  ITERATIVE CALL
 P  5.1552000000000000E+04  4.1899999999999995E+00  1.0000000000000000E+03  3.0000000000000006E-02
 I  1.5193617318123332E+01  5.1552000000000000E+04  1.0000000000000000E+00  7.2000000000000008E-01  9.0000000000000002E-01
 I  2.4000000000000000E+02
 O  1.5208175790677030E+01  5.1552000000000000E+04  1.7183999999999996E+04  3.1446719999999987E+03  1.6668479999999990E+03
 O  1.2372480000000000E+04

 *TRACE*  UNIT  31  TYPE  155  AT TIME   8.0359166666666670E+03  ITERATION     32  CALL    8128  ITERATIVE CALL
 P  0.0000000000000000E+00  4.0000000000000000E+00  4.0000000000000000E+00  0.0000000000000000E+00  0.0000000000000000E+00
 I  1.6432881920402814E+01  8.9982121822254376E+03  2.2801120152878767E+01  5.1552000000000000E+04
 O  1.6423677101629409E+01  8.9982121822254376E+03  2.2786098717894355E+01  5.1552000000000000E+04

 *TRACE*  UNIT  38  TYPE  682  AT TIME   8.0359166666666670E+03  ITERATION     32  CALL    8128  ITERATIVE CALL
 P  4.1899999999999995E+00
 I  1.5208175790677030E+01  5.1552000000000000E+04  1.0000000000000000E+02 -9.9900000000000000E+02  9.9900000000000000E+02
 O  1.5208638747467235E+01  5.1552000000000000E+04  0.0000000000000000E+00  9.9999999999841592E+01  0.0000000000000000E+00
 O  1.5840839751035674E-10

 *TRACE*  UNIT  40  TYPE  741  AT TIME   8.0359166666666670E+03  ITERATION     32  CALL    8128  ITERATIVE CALL
 P  5.1552000000000000E+04  4.1899999999999995E+00  1.0000000000000000E+03  3.0000000000000006E-02
 I  2.2786098717894355E+01  5.1552000000000000E+04  1.0000000000000000E+00  7.2000000000000008E-01  9.0000000000000002E-01
 I  2.4000000000000000E+02
 O  2.2800657190448053E+01  5.1552000000000000E+04  1.7183999999999996E+04  3.1446719999999987E+03  1.6668479999999990E+03
 O  1.2372480000000000E+04
 
*** Warning at time       :      8035.916667
    Generated by Unit     : Not applicable or not available
    Generated by Type     : Not applicable or not available
    TRNSYS Message    441 : The inputs to the listed units have not converged at this timestep. The values at the last iteration will be used and the simulation will proceed.
    Reported information  : UNITS: 31  38  40
 

 *TRACE*  UNIT  31  TYPE  155  AT TIME   8.0360000000000000E+03  ITERATION     31  CALL    8161  ITERATIVE CALL
 P  0.0000000000000000E+00  4.0000000000000000E+00  4.0000000000000000E+00  0.0000000000000000E+00  0.0000000000000000E+00
 I  1.6414204433726233E+01  8.9982121822254376E+03  2.2801120038284232E+01  5.1552000000000000E+04
 O  1.6405012071419144E+01  8.9982121822254376E+03  2.2786098602365776E+01  5.1552000000000000E+04

 *TRACE*  UNIT  38  TYPE  682  AT TIME   8.0360000000000000E+03  ITERATION     31  CALL    8161  ITERATIVE CALL
 P  4.1899999999999995E+00
 I  1.5205718082288248E+01  5.1552000000000000E+04  1.0000000000000000E+02 -9.9900000000000000E+02  9.9900000000000000E+02
 O  1.5206181039078453E+01  5.1552000000000000E+04  0.0000000000000000E+00  9.9999999999841592E+01  0.0000000000000000E+00
 O  1.5840839751035674E-10

 *TRACE*  UNIT  40  TYPE  741  AT TIME   8.0360000000000000E+03  ITERATION     31  CALL    8161  ITERATIVE CALL
 P  5.1552000000000000E+04  4.1899999999999995E+00  1.0000000000000000E+03  3.0000000000000006E-02
 I  2.2786098602365776E+01  5.1552000000000000E+04  1.0000000000000000E+00  7.2000000000000008E-01  9.0000000000000002E-01
 I  2.4000000000000000E+02
 O  2.2800657074919474E+01  5.1552000000000000E+04  1.7183999999999996E+04  3.1446719999999987E+03  1.6668479999999990E+03
 O  1.2372480000000000E+04

 *TRACE*  UNIT  31  TYPE  155  AT TIME   8.0360000000000000E+03  ITERATION     32  CALL    8162  ITERATIVE CALL
 P  0.0000000000000000E+00  4.0000000000000000E+00  4.0000000000000000E+00  0.0000000000000000E+00  0.0000000000000000E+00
 I  1.6414204433726233E+01  8.9982121822254376E+03  1.5206181039078453E+01  5.1552000000000000E+04
 O  1.6405010821019452E+01  8.9982121822254376E+03  1.5205211222889092E+01  5.1552000000000000E+04

 *TRACE*  UNIT  38  TYPE  682  AT TIME   8.0360000000000000E+03  ITERATION     32  CALL    8162  ITERATIVE CALL
 P  4.1899999999999995E+00
 I  2.2800657074919474E+01  5.1552000000000000E+04  1.0000000000000000E+02 -9.9900000000000000E+02  9.9900000000000000E+02
 O  2.2801120031709679E+01  5.1552000000000000E+04  0.0000000000000000E+00  9.9999999999841592E+01  0.0000000000000000E+00
 O  1.5840839751035674E-10

 *TRACE*  UNIT  40  TYPE  741  AT TIME   8.0360000000000000E+03  ITERATION     32  CALL    8162  ITERATIVE CALL
 P  5.1552000000000000E+04  4.1899999999999995E+00  1.0000000000000000E+03  3.0000000000000006E-02
 I  1.5205211222889092E+01  5.1552000000000000E+04  1.0000000000000000E+00  7.2000000000000008E-01  9.0000000000000002E-01
 I  2.4000000000000000E+02
 O  1.5219769695442791E+01  5.1552000000000000E+04  1.7183999999999996E+04  3.1446719999999987E+03  1.6668479999999990E+03
 O  1.2372480000000000E+04
 
*** Warning at time       :      8036.000000
    Generated by Unit     : Not applicable or not available
    Generated by Type     : Not applicable or not available
    TRNSYS Message    441 : The inputs to the listed units have not converged at this timestep. The values at the last iteration will be used and the simulation will proceed.
    Reported information  : UNITS: 31  38  40
 
